Circuit: * C:\Users\btlf\OneDrive\Documents\GitHub\Eka-PGr-SignalGen\LtSpice\DAC.asc

WARNING: Node NC_10 is floating.

WARNING: Less than two connections to node nc_01.  This node is used by v12.
WARNING: Less than two connections to node nc_02.  This node is used by v13.
WARNING: Less than two connections to node nc_03.  This node is used by v14.
WARNING: Less than two connections to node nc_04.  This node is used by v15.
WARNING: Less than two connections to node nc_05.  This node is used by v16.
WARNING: Less than two connections to node nc_06.  This node is used by v17.
WARNING: Less than two connections to node nc_07.  This node is used by v18.
WARNING: Less than two connections to node nc_08.  This node is used by v19.
WARNING: Less than two connections to node nc_09.  This node is used by v11.
WARNING: Less than two connections to node nc_10.  This node is used by v11.
Direct Newton iteration failed to find .op point.  (Use ".option noopiter" to skip.)
Starting Gmin stepping
Gmin = 10
Gmin = 1.07374
Gmin = 0.115292
Gmin = 0.0123794
Gmin = 0.00132923
Gmin = 0.000142725
Gmin = 1.5325e-05
Gmin = 1.6455e-06
Gmin = 1.76685e-07
Gmin = 1.89714e-08
Gmin = 2.03704e-09
Gmin = 2.18725e-10
Gmin = 2.34854e-11
Gmin = 2.52173e-12
Gmin = 2.70769e-13
Gmin = 0
Gmin stepping succeeded in finding the operating point.


Date: Thu May  9 13:05:23 2024
Total elapsed time: 1.169 seconds.

tnom = 27
temp = 27
method = modified trap
totiter = 54724
traniter = 54328
tranpoints = 27118
accept = 24575
rejected = 2543
matrix size = 56
fillins = 12
solver = Normal
Avg thread counts: 1.0/1.1/1.1/1.0
Matrix Compiler1: 3.79 KB object code size  1.5/0.9/[0.9]
Matrix Compiler2: 4.12 KB object code size  0.8/0.8/[0.6]

