Circuit: * C:\Users\btlf\OneDrive\Documents\GitHub\Eka-PGr-SignalGen\LtSpice\Gensim.asc

Warning: Multiple definitions of model "2scr375p" Type: BJT
Warning: Multiple definitions of model "bc857b" Type: BJT
Warning: Multiple definitions of model "bc847c" Type: BJT
Warning: Multiple definitions of model "bc847b" Type: BJT
Direct Newton iteration for .op point succeeded.

Date: Sun May  5 03:13:05 2024
Total elapsed time: 0.122 seconds.

tnom = 27
temp = 27
method = modified trap
totiter = 2109
traniter = 2082
tranpoints = 1042
accept = 1042
rejected = 0
matrix size = 22
fillins = 40
solver = Normal
Avg thread counts: 1.7/2.3/2.3/1.7
Matrix Compiler1:     199 opcodes  1.1/[0.5]/0.5
Matrix Compiler2: 2.54 KB object code size  0.4/0.4/[0.3]

